optimized_structure
     RDKit          3D

 57 58  0  0  0  0  0  0  0  0999 V2000
   -5.6973    0.1344    8.7321 C   0  0  0  0  0  0  0  0  0  0  0  0
   -4.3753   -0.0739    8.0088 C   0  0  0  0  0  0  0  0  0  0  0  0
   -4.5948   -0.4124    6.5338 C   0  0  0  0  0  0  0  0  0  0  0  0
   -3.2942   -0.5125    5.7288 C   0  0  0  0  0  0  0  0  0  0  0  0
   -2.4120   -1.6965    6.1484 C   0  0  0  0  0  0  0  0  0  0  0  0
   -1.1248   -1.8608    5.3247 C   0  0  2  0  0  0  0  0  0  0  0  0
   -0.3684   -0.6452    5.3017 O   0  0  0  0  0  0  0  0  0  0  0  0
   -1.3608   -2.2363    3.8912 C   0  0  0  0  0  0  0  0  0  0  0  0
   -0.7341   -3.2539    3.2786 C   0  0  0  0  0  0  0  0  0  0  0  0
   -0.8559   -3.6674    1.8313 C   0  0  2  0  0  0  0  0  0  0  0  0
    0.2943   -3.0753    0.9687 C   0  0  1  0  0  0  0  0  0  0  0  0
    1.4221   -4.0529    0.6391 C   0  0  0  0  0  0  0  0  0  0  0  0
    2.2069   -4.4591    1.8580 C   0  0  0  0  0  0  0  0  0  0  0  0
    3.2224   -3.7867    2.4256 C   0  0  0  0  0  0  0  0  0  0  0  0
    3.7928   -2.4634    1.9892 C   0  0  0  0  0  0  0  0  0  0  0  0
    3.8626   -1.4359    3.1296 C   0  0  0  0  0  0  0  0  0  0  0  0
    2.5011   -0.9450    3.6312 C   0  0  0  0  0  0  0  0  0  0  0  0
    1.8102   -0.0181    2.6567 C   0  0  0  0  0  0  0  0  0  0  0  0
    0.5737    0.3476    3.0619 O   0  0  0  0  0  0  0  0  0  0  0  0
    2.2892    0.3842    1.6073 O   0  0  0  0  0  0  0  0  0  0  0  0
   -0.4727   -2.5761   -0.2660 C   0  0  2  0  0  0  0  0  0  0  0  0
   -1.6916   -1.9195    0.3379 C   0  0  0  0  0  0  0  0  0  0  0  0
   -2.0934   -3.1999    1.0315 C   0  0  1  0  0  0  0  0  0  0  0  0
   -2.1911   -4.0982   -0.0956 O   0  0  0  0  0  0  0  0  0  0  0  0
   -1.0403   -3.7084   -0.9485 O   0  0  0  0  0  0  0  0  0  0  0  0
   -5.5195    0.3713    9.7857 H   0  0  0  0  0  0  0  0  0  0  0  0
   -6.2615    0.9612    8.2890 H   0  0  0  0  0  0  0  0  0  0  0  0
   -6.3157   -0.7678    8.6861 H   0  0  0  0  0  0  0  0  0  0  0  0
   -3.8279   -0.8801    8.5082 H   0  0  0  0  0  0  0  0  0  0  0  0
   -3.7706    0.8360    8.0969 H   0  0  0  0  0  0  0  0  0  0  0  0
   -5.1542   -1.3519    6.4477 H   0  0  0  0  0  0  0  0  0  0  0  0
   -5.2176    0.3676    6.0780 H   0  0  0  0  0  0  0  0  0  0  0  0
   -3.5678   -0.6122    4.6727 H   0  0  0  0  0  0  0  0  0  0  0  0
   -2.7356    0.4261    5.8241 H   0  0  0  0  0  0  0  0  0  0  0  0
   -2.1150   -1.5500    7.1938 H   0  0  0  0  0  0  0  0  0  0  0  0
   -2.9940   -2.6255    6.1077 H   0  0  0  0  0  0  0  0  0  0  0  0
   -0.4975   -2.6157    5.8138 H   0  0  0  0  0  0  0  0  0  0  0  0
   -0.3406   -0.3299    6.2258 H   0  0  0  0  0  0  0  0  0  0  0  0
   -2.0376   -1.5998    3.3286 H   0  0  0  0  0  0  0  0  0  0  0  0
   -0.0257   -3.8506    3.8539 H   0  0  0  0  0  0  0  0  0  0  0  0
   -0.8271   -4.7655    1.8081 H   0  0  0  0  0  0  0  0  0  0  0  0
    0.7231   -2.1981    1.4656 H   0  0  0  0  0  0  0  0  0  0  0  0
    2.0941   -3.6063   -0.1037 H   0  0  0  0  0  0  0  0  0  0  0  0
    1.0247   -4.9606    0.1682 H   0  0  0  0  0  0  0  0  0  0  0  0
    1.9177   -5.4128    2.2987 H   0  0  0  0  0  0  0  0  0  0  0  0
    3.7080   -4.2424    3.2883 H   0  0  0  0  0  0  0  0  0  0  0  0
    4.8146   -2.6484    1.6351 H   0  0  0  0  0  0  0  0  0  0  0  0
    3.2450   -2.0445    1.1403 H   0  0  0  0  0  0  0  0  0  0  0  0
    4.4588   -0.5794    2.7906 H   0  0  0  0  0  0  0  0  0  0  0  0
    4.4070   -1.8760    3.9750 H   0  0  0  0  0  0  0  0  0  0  0  0
    1.8485   -1.7941    3.8486 H   0  0  0  0  0  0  0  0  0  0  0  0
    2.6547   -0.3796    4.5576 H   0  0  0  0  0  0  0  0  0  0  0  0
    0.2885   -0.0669    3.9153 H   0  0  0  0  0  0  0  0  0  0  0  0
    0.1079   -1.9516   -0.9482 H   0  0  0  0  0  0  0  0  0  0  0  0
   -2.4168   -1.6198   -0.4258 H   0  0  0  0  0  0  0  0  0  0  0  0
   -1.4673   -1.0848    1.0063 H   0  0  0  0  0  0  0  0  0  0  0  0
   -3.0371   -3.1745    1.5801 H   0  0  0  0  0  0  0  0  0  0  0  0
  1  2  1  0
  2  3  1  0
  3  4  1  0
  4  5  1  0
  5  6  1  0
  6  7  1  0
  6  8  1  0
  8  9  2  0
  9 10  1  0
 10 11  1  0
 11 12  1  0
 12 13  1  0
 13 14  2  0
 14 15  1  0
 15 16  1  0
 16 17  1  0
 17 18  1  0
 18 19  1  0
 18 20  2  0
 11 21  1  0
 21 22  1  0
 22 23  1  0
 23 24  1  0
 24 25  1  0
 23 10  1  0
 25 21  1  0
  1 26  1  0
  1 27  1  0
  1 28  1  0
  2 29  1  0
  2 30  1  0
  3 31  1  0
  3 32  1  0
  4 33  1  0
  4 34  1  0
  5 35  1  0
  5 36  1  0
  6 37  1  1
  7 38  1  0
  8 39  1  0
  9 40  1  0
 10 41  1  1
 11 42  1  1
 12 43  1  0
 12 44  1  0
 13 45  1  0
 14 46  1  0
 15 47  1  0
 15 48  1  0
 16 49  1  0
 16 50  1  0
 17 51  1  0
 17 52  1  0
 19 53  1  0
 21 54  1  6
 22 55  1  0
 22 56  1  0
 23 57  1  1
M  END
